12
benzene oplsaa.ff
C            0.000000        0.000000        0.000000
C            1.400000        0.000000        0.000000
C            2.100000        1.212436        0.000000
C            1.400000        2.424871        0.000000
C           -0.000000        2.424871        0.000000
C           -0.700000        1.212436        0.000000
H           -0.540000       -0.935307       -0.000000
H            1.940000       -0.935307       -0.000000
H            3.180000        1.212436       -0.000000
H            1.940000        3.360179       -0.000000
H           -0.540000        3.360179       -0.000000
H           -1.780000        1.212436       -0.000000
